Version 4.1
SHEET 1 880 820
WIRE 208 -368 -48 -368
WIRE 208 -256 208 -368
WIRE -48 -208 -48 -368
WIRE 208 -80 208 -176
WIRE 208 80 208 0
WIRE 144 128 48 128
WIRE -96 224 -208 224
WIRE 48 224 48 128
WIRE 48 224 -32 224
WIRE 208 224 208 176
WIRE 368 224 208 224
WIRE 544 224 432 224
WIRE 208 272 208 224
WIRE 544 272 544 224
WIRE 48 320 48 224
WIRE 144 320 48 320
WIRE -208 352 -208 224
WIRE 208 432 208 368
WIRE 544 480 544 352
WIRE -208 512 -208 432
WIRE 208 608 208 512
WIRE 208 688 208 672
WIRE 208 800 208 688
FLAG -48 -208 0
FLAG -208 512 0
FLAG 544 480 0
FLAG 208 800 0
FLAG 544 224 Vout
FLAG -208 224 Vin
SYMBOL npn 144 80 R0
SYMATTR InstName Q1
SYMATTR Value BC547B
SYMBOL pnp 144 368 M180
SYMATTR InstName Q2
SYMATTR Value BC557B
SYMBOL res 192 -96 R0
SYMATTR InstName R1
SYMATTR Value 100
SYMBOL res 192 416 R0
SYMATTR InstName R2
SYMATTR Value 100
SYMBOL res 528 256 R0
SYMATTR InstName Rload
SYMATTR Value 200
SYMBOL cap 432 208 R90
WINDOW 0 0 32 VBottom 2
WINDOW 3 32 32 VTop 2
SYMATTR InstName Cout
SYMATTR Value 10”
SYMBOL cap -32 208 R90
WINDOW 0 0 32 VBottom 2
WINDOW 3 32 32 VTop 2
SYMATTR InstName Cin
SYMATTR Value 10”
SYMBOL voltage -208 336 R0
WINDOW 123 24 124 Left 2
WINDOW 39 0 0 Left 0
SYMATTR Value2 AC 1
SYMATTR InstName Vin
SYMATTR Value SINE(0 1 1k)
SYMBOL voltage 208 -160 R180
WINDOW 0 24 96 Left 2
WINDOW 3 24 16 Left 2
WINDOW 123 0 0 Left 0
WINDOW 39 0 0 Left 0
SYMATTR InstName VCC
SYMATTR Value 5V
SYMBOL voltage 208 704 R180
WINDOW 0 24 96 Left 2
WINDOW 3 24 16 Left 2
WINDOW 123 0 0 Left 0
WINDOW 39 0 0 Left 0
SYMATTR InstName VEE
SYMATTR Value 5V
TEXT -496 608 Left 2 ;.tran 0 10m 0
TEXT 488 -64 Left 2 ;Thota Venkata Sai\nU24EC086
TEXT -488 560 Left 2 !.op
