Version 4.1
SHEET 1 880 724
WIRE 128 -272 -128 -272
WIRE -128 -224 -128 -272
WIRE 128 -224 128 -272
WIRE 128 -32 128 -144
WIRE 128 -32 32 -32
WIRE 224 -32 128 -32
WIRE 224 80 224 48
WIRE -176 128 -256 128
WIRE 32 128 32 48
WIRE 32 128 -112 128
WIRE 160 128 32 128
WIRE -256 224 -256 128
WIRE -256 224 -496 224
WIRE 32 224 32 208
WIRE 128 224 32 224
WIRE 224 224 224 176
WIRE 304 224 224 224
WIRE 448 224 368 224
WIRE 128 240 128 224
WIRE 448 240 448 224
WIRE 32 256 32 224
WIRE -496 272 -496 224
WIRE 224 336 224 224
WIRE 448 352 448 320
WIRE -256 384 -256 224
WIRE -176 384 -256 384
WIRE 32 384 32 336
WIRE 32 384 -112 384
WIRE 160 384 32 384
WIRE -496 432 -496 352
WIRE 32 464 32 384
WIRE 224 464 224 432
WIRE 144 544 32 544
WIRE 224 544 144 544
WIRE 144 592 144 544
WIRE 144 704 144 672
FLAG -496 432 0
FLAG 144 704 0
FLAG 448 352 0
FLAG 128 240 0
FLAG -128 -224 0
FLAG -496 224 Vin
FLAG 448 224 Vout
SYMBOL npn 160 80 R0
SYMATTR InstName Q1
SYMATTR Value BC547B
SYMBOL pnp 160 432 M180
SYMATTR InstName Q2
SYMATTR Value BC557B
SYMBOL res 16 -48 R0
SYMATTR InstName R1
SYMATTR Value 2.2k
SYMBOL res 16 112 R0
SYMATTR InstName R2
SYMATTR Value 300
SYMBOL res 16 240 R0
SYMATTR InstName R4
SYMATTR Value 300
SYMBOL res 16 448 R0
SYMATTR InstName R5
SYMATTR Value 2.2k
SYMBOL res 208 448 R0
SYMATTR InstName R6
SYMATTR Value 100
SYMBOL res 432 224 R0
SYMATTR InstName R7
SYMATTR Value 200
SYMBOL cap 368 208 R90
WINDOW 0 0 32 VBottom 2
WINDOW 3 32 32 VTop 2
SYMATTR InstName C1
SYMATTR Value 10”
SYMBOL cap -112 112 R90
WINDOW 0 0 32 VBottom 2
WINDOW 3 32 32 VTop 2
SYMATTR InstName C2
SYMATTR Value 10”
SYMBOL cap -112 368 R90
WINDOW 0 0 32 VBottom 2
WINDOW 3 32 32 VTop 2
SYMATTR InstName C3
SYMATTR Value 10”
SYMBOL voltage 144 688 R180
WINDOW 0 24 96 Left 2
WINDOW 3 24 16 Left 2
WINDOW 123 0 0 Left 0
WINDOW 39 0 0 Left 0
SYMATTR InstName VEE
SYMATTR Value 5V
SYMBOL voltage -496 256 R0
WINDOW 123 24 124 Left 2
WINDOW 39 0 0 Left 0
SYMATTR InstName Vin
SYMATTR Value SINE(0 1V 1k)
SYMATTR Value2 AC 1
SYMBOL res 208 -48 R0
SYMATTR InstName R3
SYMATTR Value 100
SYMBOL voltage 128 -128 R180
WINDOW 0 24 96 Left 2
WINDOW 3 24 16 Left 2
WINDOW 123 0 0 Left 0
WINDOW 39 0 0 Left 0
SYMATTR InstName VCC
SYMATTR Value 5V
TEXT -608 568 Left 2 !.tran 0 10m 0
TEXT 424 -64 Left 2 ;Thota Venkata Sai\nU24EC086
