Version 4.1
SHEET 1 1016 680
WIRE 384 -400 192 -400
WIRE 384 -336 384 -400
WIRE 192 -320 192 -400
WIRE 384 -192 384 -256
WIRE 384 -192 224 -192
WIRE 528 -192 384 -192
WIRE 528 -48 528 -112
WIRE 720 -48 528 -48
WIRE 912 -48 784 -48
WIRE 528 16 528 -48
WIRE 912 16 912 -48
WIRE 80 64 -16 64
WIRE 224 64 224 -112
WIRE 224 64 144 64
WIRE 464 64 224 64
WIRE -16 160 -16 64
WIRE 224 160 224 64
WIRE 528 160 528 112
WIRE -16 288 -16 240
WIRE 224 288 224 240
WIRE 224 288 -16 288
WIRE 448 288 224 288
WIRE 528 288 528 240
WIRE 528 288 448 288
WIRE 912 288 912 96
WIRE 912 288 528 288
WIRE 448 320 448 288
FLAG 448 320 0
FLAG 192 -320 0
FLAG 912 -48 Vout
FLAG -16 64 Vin
SYMBOL voltage -16 144 R0
WINDOW 123 24 124 Left 2
WINDOW 39 0 0 Left 0
SYMATTR InstName V1
SYMATTR Value SINE(0 1.8 1k)
SYMATTR Value2 AC 1
SYMBOL cap 80 80 R270
WINDOW 0 32 32 VTop 2
WINDOW 3 0 32 VBottom 2
SYMATTR InstName C1
SYMATTR Value 0.1”
SYMBOL res 208 -208 R0
SYMATTR InstName R1
SYMATTR Value 68k
SYMBOL res 208 144 R0
WINDOW 3 45 72 Left 2
SYMATTR InstName R2
SYMATTR Value 12k
SYMBOL npn 464 16 R0
SYMATTR InstName Q1
SYMATTR Value BC547B
SYMBOL res 512 -208 R0
SYMATTR InstName R3
SYMATTR Value 1.2k
SYMBOL res 512 144 R0
SYMATTR InstName R4
SYMATTR Value 330
SYMBOL cap 784 -64 R90
WINDOW 0 0 32 VBottom 2
WINDOW 3 32 32 VTop 2
SYMATTR InstName C2
SYMATTR Value 0.1”
SYMBOL res 896 0 R0
SYMATTR InstName R5
SYMATTR Value 5k
SYMBOL voltage 384 -240 R180
WINDOW 0 24 96 Left 2
WINDOW 3 24 16 Left 2
WINDOW 123 0 0 Left 0
WINDOW 39 0 0 Left 0
SYMATTR InstName V2
SYMATTR Value 12
TEXT -192 280 Left 2 ;.tran 0 10m 0
TEXT 800 -264 Left 2 ;Thota Venkata Sai\nU24EC086
TEXT -192 216 Left 2 !.op
