Version 4.1
SHEET 1 880 680
WIRE 224 -240 16 -240
WIRE 224 -224 224 -240
WIRE 16 -192 16 -240
WIRE 224 -64 224 -144
WIRE 224 -64 64 -64
WIRE 496 -64 224 -64
WIRE 608 -64 496 -64
WIRE 496 -32 496 -64
WIRE 64 80 64 16
WIRE 208 80 64 80
WIRE 496 80 496 48
WIRE 496 80 368 80
WIRE 608 80 496 80
WIRE 64 160 64 80
WIRE 368 160 368 80
WIRE 208 208 208 80
WIRE 208 208 128 208
WIRE 304 208 208 208
WIRE 64 336 64 256
WIRE 208 336 64 336
WIRE 368 336 368 256
WIRE 368 336 208 336
WIRE 208 368 208 336
FLAG 208 368 0
FLAG 16 -192 0
SYMBOL npn 128 160 M0
WINDOW 0 85 34 Right 2
WINDOW 3 55 63 Left 2
SYMATTR InstName Q1
SYMATTR Value BC547B
SYMBOL npn 304 160 R0
SYMATTR InstName Q2
SYMATTR Value BC547B
SYMBOL res 48 -80 R0
SYMATTR InstName Rref
SYMATTR Value 10k
SYMBOL res 352 -48 R0
SYMATTR InstName Rout1
SYMATTR Value 8k
SYMBOL voltage 224 -128 R180
WINDOW 0 24 96 Left 2
WINDOW 3 24 16 Left 2
WINDOW 123 0 0 Left 0
WINDOW 39 0 0 Left 0
SYMATTR InstName Vcc
SYMATTR Value 12
SYMBOL res 480 -48 R0
SYMATTR InstName Rout2
SYMATTR Value 10k
SYMBOL res 592 -48 R0
SYMATTR InstName Rout3
SYMATTR Value 12k
TEXT -184 88 Left 2 ;.tran 0 1m 0
TEXT -184 128 Left 2 !.op
