Version 4.1
SHEET 1 1128 680
WIRE 368 -352 144 -352
WIRE 368 -272 368 -352
WIRE 144 -224 144 -352
WIRE 112 -64 -80 -64
WIRE 368 -64 368 -192
WIRE 368 -64 112 -64
WIRE 528 -64 368 -64
WIRE 736 -64 528 -64
WIRE 736 48 736 16
WIRE 848 48 736 48
WIRE 976 48 912 48
WIRE 112 80 112 16
WIRE 320 80 112 80
WIRE 112 128 112 80
WIRE 736 128 736 48
WIRE -160 176 -416 176
WIRE -80 176 -80 16
WIRE -80 176 -96 176
WIRE 16 176 -80 176
WIRE 48 176 16 176
WIRE 384 176 384 80
WIRE 528 176 528 16
WIRE 528 176 384 176
WIRE 672 176 528 176
WIRE 976 208 976 48
WIRE -416 272 -416 176
WIRE 736 272 736 224
WIRE 864 272 736 272
WIRE 112 304 112 224
WIRE 272 304 112 304
WIRE -80 336 -80 176
WIRE 112 336 112 304
WIRE 528 336 528 176
WIRE 736 336 736 272
WIRE 272 352 272 304
WIRE -416 416 -416 352
WIRE -80 416 -416 416
WIRE 112 416 -80 416
WIRE 272 416 112 416
WIRE 416 416 272 416
WIRE 528 416 416 416
WIRE 736 416 528 416
WIRE 976 416 976 288
WIRE 976 416 736 416
WIRE 416 496 416 416
WIRE 16 608 16 176
WIRE 400 608 16 608
WIRE 864 608 864 272
WIRE 864 608 480 608
FLAG 144 -224 0
FLAG 416 496 0
FLAG -416 176 Vin
FLAG 976 48 Vout
SYMBOL npn 48 128 R0
SYMATTR InstName Q1
SYMATTR Value BC547B
SYMBOL npn 672 128 R0
SYMATTR InstName Q2
SYMATTR Value BC547B
SYMBOL res -96 -80 R0
SYMATTR InstName R1
SYMATTR Value 68k
SYMBOL res -96 320 R0
SYMATTR InstName R2
SYMATTR Value 12k
SYMBOL res 96 -80 R0
SYMATTR InstName Rc1
SYMATTR Value 1.2k
SYMBOL res 96 320 R0
SYMATTR InstName Re1
SYMATTR Value 330
SYMBOL res 512 -80 R0
SYMATTR InstName R5
SYMATTR Value 68k
SYMBOL res 512 320 R0
SYMATTR InstName R6
SYMATTR Value 12k
SYMBOL res 720 -80 R0
SYMATTR InstName Rc2
SYMATTR Value 1.2k
SYMBOL res 720 320 R0
SYMATTR InstName Re2
SYMATTR Value 330
SYMBOL res 496 592 R90
WINDOW 0 0 56 VBottom 2
WINDOW 3 32 56 VTop 2
SYMATTR InstName Rf
SYMATTR Value 330
SYMBOL cap -96 160 R90
WINDOW 0 0 32 VBottom 2
WINDOW 3 32 32 VTop 2
SYMATTR InstName C1
SYMATTR Value 0.1µ
SYMBOL cap 384 64 R90
WINDOW 0 0 32 VBottom 2
WINDOW 3 32 32 VTop 2
SYMATTR InstName C2
SYMATTR Value 0.1µ
SYMBOL cap 288 416 R180
WINDOW 0 24 56 Left 2
WINDOW 3 24 8 Left 2
SYMATTR InstName C3
SYMATTR Value 47µ
SYMBOL cap 848 64 R270
WINDOW 0 32 32 VTop 2
WINDOW 3 0 32 VBottom 2
SYMATTR InstName Cout
SYMATTR Value 0.1µ
SYMBOL res 960 192 R0
SYMATTR InstName Rout
SYMATTR Value 5k
SYMBOL voltage -416 256 R0
WINDOW 123 24 124 Left 2
WINDOW 39 0 0 Left 0
SYMATTR Value2 AC 1
SYMATTR InstName Vin
SYMATTR Value SINE(0 100m 20k)
SYMBOL voltage 368 -176 R180
WINDOW 0 24 96 Left 2
WINDOW 3 24 16 Left 2
WINDOW 123 0 0 Left 0
WINDOW 39 0 0 Left 0
SYMATTR InstName Vcc
SYMATTR Value 12
TEXT -616 480 Left 2 !.tran 0 0.5m 0
