Version 4.1
SHEET 1 976 868
WIRE 224 -240 0 -240
WIRE 224 -192 224 -240
WIRE 0 -176 0 -240
WIRE 224 0 224 -112
WIRE 224 0 64 0
WIRE 352 0 224 0
WIRE 352 112 352 80
WIRE 896 112 352 112
WIRE 64 128 64 80
WIRE 352 128 352 112
WIRE 0 176 -160 176
WIRE 608 176 416 176
WIRE 896 192 896 112
WIRE -160 288 -160 176
WIRE 64 288 64 224
WIRE 208 288 64 288
WIRE 352 288 352 224
WIRE 352 288 208 288
WIRE 608 288 608 176
WIRE 208 352 208 288
WIRE 896 368 896 272
WIRE -160 432 -160 368
WIRE 608 448 608 368
WIRE 208 480 208 432
WIRE 208 640 208 560
FLAG 0 -176 0
FLAG -160 432 0
FLAG 208 640 0
FLAG 608 448 0
FLAG 896 368 0
FLAG -160 176 Vin
FLAG 896 112 Vout
SYMBOL npn 0 128 R0
SYMATTR InstName Q1
SYMATTR Value BC547B
SYMBOL npn 416 128 M0
SYMATTR InstName Q2
SYMATTR Value BC547B
SYMBOL res 48 -16 R0
SYMATTR InstName R1
SYMATTR Value 4.7k
SYMBOL res 336 -16 R0
SYMATTR InstName R2
SYMATTR Value 4.7k
SYMBOL res 192 336 R0
SYMATTR InstName RE
SYMATTR Value 10k
SYMBOL voltage -160 272 R0
WINDOW 123 24 124 Left 2
WINDOW 39 0 0 Left 0
SYMATTR InstName Vin1
SYMATTR Value SINE(0 10m 1k)
SYMBOL voltage 224 -96 R180
WINDOW 0 24 96 Left 2
WINDOW 3 24 16 Left 2
WINDOW 123 0 0 Left 0
WINDOW 39 0 0 Left 0
SYMATTR InstName Vcc
SYMATTR Value 10
SYMBOL voltage 608 272 R0
WINDOW 123 24 124 Left 2
WINDOW 39 0 0 Left 0
SYMATTR InstName Vin2
SYMATTR Value SINE(0 10m 1k 0 0 180)
SYMBOL voltage 208 576 R180
WINDOW 0 24 96 Left 2
WINDOW 3 24 16 Left 2
WINDOW 123 0 0 Left 0
WINDOW 39 0 0 Left 0
SYMATTR InstName VEE
SYMATTR Value 10
SYMBOL res 880 176 R0
SYMATTR InstName Rout
SYMATTR Value 5k
TEXT -480 248 Left 2 ;.tran 0 10m 0
TEXT 464 -80 Left 2 ;Thota Venkata Sai\nU24EC086
TEXT -440 304 Left 2 !.op
TEXT -352 -80 Left 2 ;Differential Mode
