Version 4.1
SHEET 1 1280 680
WIRE 384 -176 224 -176
WIRE 1056 -32 912 -32
WIRE 240 -16 128 -16
WIRE 384 -16 384 -96
WIRE 384 -16 240 -16
WIRE 496 -16 384 -16
WIRE 672 -16 496 -16
WIRE 672 64 624 64
WIRE 848 64 672 64
WIRE 912 64 912 -32
WIRE 1056 64 1056 -32
WIRE 240 112 240 64
WIRE 240 112 192 112
WIRE 352 112 240 112
WIRE 496 112 496 64
WIRE 496 112 416 112
WIRE 560 112 496 112
WIRE 1056 144 1056 64
WIRE -48 160 -208 160
WIRE 128 160 128 64
WIRE 128 160 16 160
WIRE 272 208 192 208
WIRE -208 224 -208 160
WIRE 128 256 128 160
WIRE 272 256 272 208
WIRE 496 256 496 112
WIRE 624 256 624 160
WIRE 816 256 624 256
WIRE 816 272 816 256
WIRE 272 336 128 336
WIRE 352 336 272 336
WIRE 496 336 352 336
WIRE 624 336 496 336
WIRE 816 336 624 336
WIRE 1056 336 1056 224
WIRE 1056 336 816 336
WIRE -208 368 -208 304
WIRE 352 368 352 336
WIRE 352 368 -208 368
WIRE 352 480 352 368
FLAG 352 480 0
FLAG 224 -176 0
FLAG 1056 64 Vout
FLAG -208 160 Vin
SYMBOL npn 128 112 R0
SYMATTR InstName Q1
SYMATTR Value BC547B
SYMBOL res 112 -32 R0
SYMATTR InstName R1
SYMATTR Value 68k
SYMBOL res 112 240 R0
SYMATTR InstName R2
SYMATTR Value 12k
SYMBOL res 224 -32 R0
SYMATTR InstName RC1
SYMATTR Value 1.2k
SYMBOL res 256 240 R0
SYMATTR InstName RE1
SYMATTR Value 300
SYMBOL res 480 -32 R0
SYMATTR InstName R5
SYMATTR Value 68k
SYMBOL res 480 240 R0
SYMATTR InstName R6
SYMATTR Value 12k
SYMBOL res 656 -32 R0
SYMATTR InstName RC2
SYMATTR Value 1.2k
SYMBOL res 608 240 R0
WINDOW 0 35 40 Left 2
SYMATTR InstName RE2
SYMATTR Value 300
SYMBOL cap 16 144 R90
WINDOW 0 0 32 VBottom 2
WINDOW 3 32 32 VTop 2
SYMATTR InstName Cb1
SYMATTR Value 0.1µ
SYMBOL cap 416 96 R90
WINDOW 0 0 32 VBottom 2
WINDOW 3 32 32 VTop 2
SYMATTR InstName Cb2
SYMATTR Value 0.1µ
SYMBOL cap 800 272 R0
SYMATTR InstName Ce
SYMATTR Value 47µ
SYMBOL voltage -208 208 R0
WINDOW 123 24 124 Left 2
WINDOW 39 0 0 Left 0
WINDOW 0 25 12 Left 2
SYMATTR Value2 AC 1
SYMATTR InstName V1
SYMATTR Value SINE(0 25mm 20k)
SYMBOL cap 848 80 R270
WINDOW 0 32 32 VTop 2
WINDOW 3 0 32 VBottom 2
SYMATTR InstName C4
SYMATTR Value 0.1µ
SYMBOL npn 560 64 R0
SYMATTR InstName Q2
SYMATTR Value BC547B
SYMBOL res 1040 128 R0
SYMATTR InstName Rout
SYMATTR Value 5k
SYMBOL voltage 384 -80 R180
WINDOW 0 24 96 Left 2
WINDOW 3 24 16 Left 2
SYMATTR InstName Vcc
SYMATTR Value 12V
TEXT -128 440 Left 2 ;.ac dec 100 10 1g
TEXT 824 -128 Left 2 ;Thota Venkata Sai
TEXT 824 -88 Left 2 ;U24EC086
TEXT -256 56 Left 2 !.tran 0 1m 0
