Version 4.1
SHEET 1 880 680
WIRE 160 -112 -32 -112
WIRE 160 -48 160 -112
WIRE 160 -48 112 -48
WIRE 208 -48 160 -48
WIRE -32 -32 -32 -112
WIRE 112 16 112 -48
WIRE 208 16 208 -48
WIRE -32 96 -32 48
WIRE 208 208 208 96
WIRE 224 208 208 208
WIRE 384 208 224 208
WIRE 448 208 432 208
WIRE 496 208 448 208
WIRE 224 352 224 208
WIRE 496 368 496 208
WIRE -32 400 -128 400
WIRE 112 400 112 96
WIRE 112 400 32 400
WIRE 160 400 112 400
WIRE 176 400 160 400
WIRE 224 480 224 448
WIRE 320 480 224 480
WIRE 112 496 112 400
WIRE -128 512 -128 400
WIRE 224 512 224 480
WIRE 320 528 320 480
WIRE -128 608 -128 592
WIRE 112 608 112 576
WIRE 112 608 -128 608
WIRE 224 608 224 592
WIRE 224 608 112 608
WIRE 320 608 320 592
WIRE 320 608 224 608
WIRE 496 608 496 448
WIRE 496 608 320 608
WIRE 112 640 112 608
FLAG -32 96 0
FLAG 112 640 0
SYMBOL res 96 0 R0
SYMATTR InstName R1
SYMATTR Value 91.8k
SYMBOL res 192 0 R0
SYMATTR InstName Rc
SYMATTR Value 1.2k
SYMBOL res 480 352 R0
SYMATTR InstName Rout
SYMATTR Value 5k
SYMBOL res 208 496 R0
SYMATTR InstName RE
SYMATTR Value 300
SYMBOL res 96 480 R0
SYMATTR InstName R2
SYMATTR Value 16.2k
SYMBOL voltage -32 -48 R0
SYMATTR InstName Vcc
SYMATTR Value 12
SYMBOL voltage -128 496 R0
WINDOW 3 -244 34 Left 2
WINDOW 123 -230 67 Left 2
WINDOW 39 0 0 Left 0
SYMATTR Value SINE(0 20m 20k)
SYMATTR Value2 AC 50
SYMATTR InstName Vin
SYMBOL cap 448 192 R90
WINDOW 0 0 32 VBottom 2
WINDOW 3 32 32 VTop 2
SYMATTR InstName Cc
SYMATTR Value 0.1”
SYMBOL cap 32 384 R90
WINDOW 0 0 32 VBottom 2
WINDOW 3 32 32 VTop 2
SYMATTR InstName Cb
SYMATTR Value 0.1”
SYMBOL cap 336 592 R180
WINDOW 0 -29 65 Left 2
WINDOW 3 -48 27 Left 2
SYMATTR InstName CE
SYMATTR Value 47”
SYMBOL npn 160 352 R0
SYMATTR InstName Q1
SYMATTR Value BC547B
TEXT -376 112 Left 2 !.ac dec 10 10 1g
