Version 4.1
SHEET 1 880 680
WIRE 80 -96 -16 -96
WIRE 144 -96 80 -96
WIRE 80 0 80 -96
WIRE -16 16 -16 -16
WIRE 144 112 144 -96
WIRE -16 160 -240 160
WIRE 80 160 80 80
WIRE 80 160 48 160
WIRE -240 176 -240 160
WIRE 288 208 144 208
WIRE 80 224 80 160
WIRE 288 224 288 208
WIRE 368 224 288 224
WIRE 480 224 432 224
WIRE -240 304 -240 256
WIRE -80 304 -240 304
WIRE 80 304 -80 304
WIRE 288 304 80 304
WIRE 480 304 288 304
WIRE -80 352 -80 304
FLAG -16 16 0
FLAG -80 352 0
FLAG 480 224 Vout
FLAG -240 160 Vin
SYMBOL npn 80 112 R0
SYMATTR InstName Q1
SYMATTR Value BC547B
SYMBOL res 64 -16 R0
SYMATTR InstName R1
SYMATTR Value 68k
SYMBOL res 64 208 R0
SYMATTR InstName R2
SYMATTR Value 12k
SYMBOL res 272 208 R0
SYMATTR InstName R3
SYMATTR Value 330
SYMBOL res 464 208 R0
SYMATTR InstName RLoad
SYMATTR Value 5k
SYMBOL cap 432 208 R90
WINDOW 0 0 32 VBottom 2
WINDOW 3 32 32 VTop 2
SYMATTR InstName Cout
SYMATTR Value 0.1Á
SYMBOL voltage -16 -112 R0
SYMATTR InstName Vcc
SYMATTR Value 12v
SYMBOL cap 48 144 R90
WINDOW 0 0 32 VBottom 2
WINDOW 3 32 32 VTop 2
SYMATTR InstName Cin
SYMATTR Value 0.1Á
SYMBOL voltage -240 160 R0
WINDOW 123 24 124 Left 2
WINDOW 39 0 0 Left 0
SYMATTR Value2 AC 1
SYMATTR InstName Vin
SYMATTR Value SINE(0 1 20k)
TEXT -400 80 Left 2 !.ac dec 100 100 1g
TEXT 376 40 Left 2 ;Thota Venkata Sai\nU24EC086
