Version 4.1
SHEET 1 880 680
WIRE 256 -64 96 -64
WIRE 96 16 96 -64
WIRE 256 64 256 16
WIRE 256 64 176 64
WIRE 320 64 256 64
WIRE 320 144 288 144
WIRE 416 144 320 144
WIRE 496 144 480 144
WIRE 96 192 -176 192
WIRE 176 192 176 144
WIRE 176 192 160 192
WIRE 224 192 176 192
WIRE -176 208 -176 192
WIRE 496 208 496 144
WIRE 176 240 176 192
WIRE 336 240 288 240
WIRE -176 320 -176 288
WIRE 160 320 -176 320
WIRE 176 320 160 320
WIRE 336 320 176 320
WIRE 496 320 496 288
WIRE 496 320 336 320
WIRE 160 400 160 320
FLAG 160 400 0
FLAG 96 16 0
FLAG 496 144 Vout
FLAG -176 192 Vin
SYMBOL voltage -176 192 R0
WINDOW 123 24 124 Left 2
WINDOW 39 0 0 Left 0
SYMATTR InstName V1
SYMATTR Value SINE(0 100m 20k)
SYMATTR Value2 AC 1
SYMBOL res 160 48 R0
SYMATTR InstName R1
SYMATTR Value 68k
SYMBOL res 160 224 R0
SYMATTR InstName R2
SYMATTR Value 12k
SYMBOL res 320 224 R0
SYMATTR InstName Re
SYMATTR Value 330
SYMBOL res 304 48 R0
SYMATTR InstName Rc
SYMATTR Value 1.2k
SYMBOL npn 224 144 R0
SYMATTR InstName Q1
SYMATTR Value BC547B
SYMBOL cap 160 176 R90
WINDOW 0 0 32 VBottom 2
WINDOW 3 32 32 VTop 2
SYMATTR InstName Cb
SYMATTR Value 0.1Á
SYMBOL voltage 256 32 R180
WINDOW 0 24 96 Left 2
WINDOW 3 24 16 Left 2
WINDOW 123 0 0 Left 0
WINDOW 39 0 0 Left 0
SYMATTR InstName V2
SYMATTR Value 12
SYMBOL cap 480 128 R90
WINDOW 0 0 32 VBottom 2
WINDOW 3 32 32 VTop 2
SYMATTR InstName Cc
SYMATTR Value 0.1Á
SYMBOL res 480 192 R0
SYMATTR InstName Rout
SYMATTR Value 5k
TEXT -160 360 Left 2 !.ac dec 100 100 1g
TEXT 424 0 Left 2 ;Thota Venkata Sai
TEXT 424 40 Left 2 ;U24EC086
