Version 4.1
SHEET 1 880 680
WIRE 272 -448 192 -448
WIRE 592 -448 336 -448
WIRE 80 -304 64 -304
WIRE 192 -304 192 -448
WIRE 192 -304 160 -304
WIRE 192 -272 192 -304
WIRE 272 -272 192 -272
WIRE 592 -272 592 -448
WIRE 592 -272 336 -272
WIRE 64 -144 64 -304
WIRE 176 -144 64 -144
WIRE 592 -144 592 -272
WIRE 592 -144 256 -144
WIRE 256 -32 192 -32
WIRE 192 -16 192 -32
WIRE 256 -16 256 -32
WIRE 192 144 192 64
WIRE -32 160 -128 160
WIRE 64 160 64 -144
WIRE 64 160 48 160
WIRE 160 160 64 160
WIRE 592 176 592 -144
WIRE 592 176 224 176
WIRE 160 192 80 192
WIRE -128 208 -128 160
WIRE 192 272 192 208
WIRE 240 352 192 352
WIRE 512 352 432 352
WIRE 592 352 592 176
WIRE 240 368 240 352
WIRE 80 400 80 192
WIRE 80 400 -48 400
WIRE 368 400 368 352
WIRE 368 400 80 400
WIRE -48 512 -48 464
WIRE 16 512 -48 512
WIRE 80 512 80 480
WIRE 80 512 16 512
WIRE 16 560 16 512
FLAG 256 -16 0
FLAG 240 368 0
FLAG -128 208 0
FLAG 16 560 0
FLAG 592 176 Vout
SYMBOL OpAmps\\UniversalOpAmp 192 176 R0
SYMATTR InstName U1
SYMBOL res 64 144 R90
WINDOW 0 0 56 VBottom 2
WINDOW 3 32 56 VTop 2
SYMATTR InstName R1
SYMATTR Value 10k
SYMBOL res 272 -160 R90
WINDOW 0 0 56 VBottom 2
WINDOW 3 32 56 VTop 2
SYMATTR InstName R2
SYMATTR Value 22k
SYMBOL res 176 -320 R90
WINDOW 0 0 56 VBottom 2
WINDOW 3 32 56 VTop 2
SYMATTR InstName R3
SYMATTR Value 100k
SYMBOL res 608 336 R90
WINDOW 0 0 56 VBottom 2
WINDOW 3 32 56 VTop 2
SYMATTR InstName R4
SYMATTR Value 10k
SYMBOL res 96 496 R180
WINDOW 0 36 36 Left 2
WINDOW 3 -52 27 Left 2
SYMATTR InstName R5
SYMATTR Value 10k
SYMBOL cap -64 400 R0
WINDOW 0 33 60 Left 2
WINDOW 3 -83 65 Left 2
SYMATTR InstName C1
SYMATTR Value 0.01”
SYMBOL cap 432 336 R90
WINDOW 0 0 32 VBottom 2
WINDOW 3 32 32 VTop 2
SYMATTR InstName C2
SYMATTR Value 0.01”
SYMBOL voltage 192 80 R180
WINDOW 0 24 96 Left 2
WINDOW 3 24 16 Left 2
WINDOW 123 0 0 Left 0
WINDOW 39 0 0 Left 0
SYMATTR InstName V1
SYMATTR Value 15
SYMBOL voltage 192 368 R180
WINDOW 0 24 96 Left 2
WINDOW 3 24 16 Left 2
WINDOW 123 0 0 Left 0
WINDOW 39 0 0 Left 0
SYMATTR InstName V2
SYMATTR Value -15
SYMBOL diode 336 -464 R90
WINDOW 0 0 32 VBottom 2
WINDOW 3 32 32 VTop 2
SYMATTR InstName D1
SYMBOL diode 272 -256 R270
WINDOW 0 32 32 VTop 2
WINDOW 3 0 32 VBottom 2
SYMATTR InstName D2
TEXT -376 304 Left 2 !.tran 0 70ms 0 startup
