Version 4.1
SHEET 1 880 680
WIRE 208 0 32 0
WIRE 368 0 208 0
WIRE 368 96 368 80
WIRE 576 96 368 96
WIRE 800 96 576 96
WIRE 208 128 208 80
WIRE 32 144 32 80
WIRE 368 144 368 96
WIRE 576 160 576 96
WIRE 800 160 800 96
WIRE -16 224 -80 224
WIRE 320 240 320 224
WIRE 368 240 320 240
WIRE 496 240 368 240
WIRE 528 240 496 240
WIRE -80 256 -80 224
WIRE 320 256 320 240
WIRE 320 256 -80 256
WIRE 496 256 496 240
WIRE 576 256 496 256
WIRE 752 256 752 240
WIRE 752 256 576 256
WIRE 32 288 32 240
WIRE 208 288 32 288
WIRE 368 288 368 240
WIRE 368 288 208 288
WIRE 576 288 576 256
WIRE 576 288 368 288
WIRE 800 288 800 256
WIRE 800 288 576 288
WIRE 208 320 208 288
FLAG 208 320 0
FLAG 208 128 0
SYMBOL nmos -16 144 R0
SYMATTR InstName M1
SYMBOL nmos 320 144 R0
SYMATTR InstName M2
SYMBOL res 16 -16 R0
SYMATTR InstName R1
SYMATTR Value 12k
SYMBOL res 352 -16 R0
SYMATTR InstName R2
SYMATTR Value 12k
SYMBOL voltage 208 -16 R0
WINDOW 123 0 0 Left 0
WINDOW 39 0 0 Left 0
SYMATTR InstName V1
SYMATTR Value 10
SYMBOL nmos 528 160 R0
SYMATTR InstName M3
SYMBOL nmos 752 160 R0
SYMATTR InstName M4
TEXT -232 352 Left 2 !.tran 0 100n 0
