Version 4.1
SHEET 1 1076 680
WIRE 176 -208 32 -208
WIRE 368 -208 256 -208
WIRE 224 -96 96 -96
WIRE 96 -64 96 -96
WIRE 224 -32 224 -96
WIRE 224 144 224 48
WIRE -96 160 -192 160
WIRE 32 160 32 -208
WIRE 32 160 -16 160
WIRE 192 160 32 160
WIRE 368 176 368 -208
WIRE 368 176 256 176
WIRE 416 176 368 176
WIRE 528 176 480 176
WIRE 592 176 528 176
WIRE 720 176 656 176
WIRE 800 176 720 176
WIRE 912 176 864 176
WIRE 1072 176 912 176
WIRE 192 192 80 192
WIRE 528 240 528 176
WIRE 720 240 720 176
WIRE 912 240 912 176
WIRE 80 256 80 192
WIRE 224 320 224 208
WIRE 528 352 528 320
WIRE 720 352 720 320
WIRE 720 352 528 352
WIRE 912 352 912 320
WIRE 912 352 720 352
WIRE 720 400 720 352
WIRE 224 464 224 400
WIRE -192 512 -192 160
WIRE 1072 512 1072 176
WIRE 1072 512 -192 512
FLAG 96 -64 0
FLAG 224 464 0
FLAG 720 400 0
FLAG 80 256 0
FLAG 368 176 Vout
SYMBOL voltage 224 64 R180
WINDOW 0 24 96 Left 2
WINDOW 3 24 16 Left 2
WINDOW 123 0 0 Left 0
WINDOW 39 0 0 Left 0
SYMATTR InstName V1
SYMATTR Value 15
SYMBOL voltage 224 416 R180
WINDOW 0 24 96 Left 2
WINDOW 3 24 16 Left 2
WINDOW 123 0 0 Left 0
WINDOW 39 0 0 Left 0
SYMATTR InstName V2
SYMATTR Value -15
SYMBOL res 272 -224 R90
WINDOW 0 0 56 VBottom 2
WINDOW 3 32 56 VTop 2
SYMATTR InstName Rf
SYMATTR Value 396k
SYMBOL res 0 144 R90
WINDOW 0 0 56 VBottom 2
WINDOW 3 32 56 VTop 2
SYMATTR InstName Ri
SYMATTR Value 10k
SYMBOL res 512 224 R0
SYMATTR InstName R2
SYMATTR Value 10k
SYMBOL res 704 224 R0
SYMATTR InstName R3
SYMATTR Value 10k
SYMBOL res 896 224 R0
SYMATTR InstName R5
SYMATTR Value 10k
SYMBOL cap 480 160 R90
WINDOW 0 0 32 VBottom 2
WINDOW 3 32 32 VTop 2
WINDOW 39 60 32 VTop 2
SYMATTR InstName C1
SYMATTR Value 0.01”
SYMATTR SpiceLine IC = 3m
SYMBOL cap 656 160 R90
WINDOW 0 0 32 VBottom 2
WINDOW 3 32 32 VTop 2
SYMATTR InstName C2
SYMATTR Value 0.01”
SYMBOL cap 864 160 R90
WINDOW 0 0 32 VBottom 2
WINDOW 3 32 32 VTop 2
SYMATTR InstName C3
SYMATTR Value 0.01”
SYMBOL OpAmps\\UniversalOpAmp 224 176 R0
SYMATTR InstName U1
TEXT -424 80 Left 2 !.tran 20m startup
