Version 4.1
SHEET 1 1144 680
WIRE 224 64 80 64
WIRE 224 96 224 64
WIRE 224 96 160 96
WIRE 272 96 224 96
WIRE 80 192 80 144
WIRE 272 208 272 176
WIRE 272 208 256 208
WIRE 384 208 272 208
WIRE 576 208 448 208
WIRE 0 256 -32 256
WIRE 160 256 160 176
WIRE 160 256 64 256
WIRE 192 256 160 256
WIRE -32 320 -32 256
WIRE 256 336 256 304
WIRE 352 336 256 336
WIRE 160 352 160 256
WIRE 576 352 576 208
WIRE 256 368 256 336
WIRE 352 368 352 336
WIRE -32 512 -32 400
WIRE 160 512 160 432
WIRE 160 512 -32 512
WIRE 256 512 256 448
WIRE 256 512 160 512
WIRE 352 512 352 432
WIRE 352 512 256 512
WIRE 576 512 576 432
WIRE 576 512 352 512
FLAG 80 192 0
SYMBOL voltage 80 48 R0
WINDOW 0 -57 14 Left 2
WINDOW 123 0 0 Left 0
WINDOW 39 0 0 Left 0
SYMATTR InstName Vcc
SYMATTR Value 12
SYMBOL res 256 80 R0
SYMATTR InstName Rc
SYMATTR Value 1.2k
SYMBOL res 144 80 R0
SYMATTR InstName R1
SYMATTR Value 91.8k
SYMBOL npn 192 208 R0
SYMATTR InstName Q1
SYMATTR Value BC547B
SYMBOL cap 448 192 R90
WINDOW 0 0 32 VBottom 2
WINDOW 3 32 32 VTop 2
SYMATTR InstName Cc
SYMATTR Value 0.1”
SYMBOL res 240 352 R0
WINDOW 3 16 81 Left 2
SYMATTR InstName Re
SYMATTR Value 300
SYMBOL res 560 336 R0
WINDOW 0 69 41 Right 2
SYMATTR InstName Rout
SYMATTR Value 5k
SYMBOL cap 368 432 R180
WINDOW 0 -26 49 Left 2
WINDOW 3 -33 14 Left 2
SYMATTR InstName Ce
SYMATTR Value 47”
SYMBOL cap 64 240 R90
WINDOW 0 0 32 VBottom 2
WINDOW 3 32 32 VTop 2
SYMATTR InstName Cb
SYMATTR Value 0.1”
SYMBOL voltage -32 304 R0
WINDOW 0 -59 11 Left 2
WINDOW 3 -220 99 Left 2
WINDOW 123 0 0 Left 0
WINDOW 39 0 0 Left 0
SYMATTR InstName Vi
SYMATTR Value SINE(0 2m 20k)
SYMBOL res 144 336 R0
SYMATTR InstName R2
SYMATTR Value 16.2k
TEXT 984 40 Left 2 ;VENKATA SAI
TEXT 1016 72 Left 2 ;U24EC086
TEXT -112 552 Left 2 ;.ac dec 100 1 1g
TEXT -112 584 Left 2 !.tran 2m
