Version 4.1
SHEET 1 888 740
WIRE 80 -352 -176 -352
WIRE 80 -336 80 -352
WIRE -176 -288 -176 -352
WIRE 64 -112 -208 -112
WIRE 80 -112 80 -256
WIRE 80 -112 64 -112
WIRE 288 -112 80 -112
WIRE 432 -112 288 -112
WIRE 432 16 432 -32
WIRE 432 16 352 16
WIRE 576 16 432 16
WIRE 832 16 640 16
WIRE 64 48 64 -32
WIRE 144 48 64 48
WIRE 432 64 432 16
WIRE 64 80 64 48
WIRE 208 112 208 48
WIRE 368 112 208 112
WIRE -384 128 -480 128
WIRE -208 128 -208 -32
WIRE -208 128 -320 128
WIRE 0 128 -208 128
WIRE 832 144 832 16
WIRE 64 208 64 176
WIRE 96 208 64 208
WIRE 208 208 176 208
WIRE 352 208 352 16
WIRE 352 208 272 208
WIRE -480 272 -480 128
WIRE -208 320 -208 128
WIRE 64 320 64 208
WIRE 288 320 288 -32
WIRE 432 320 432 160
WIRE 832 352 832 224
WIRE -480 432 -480 352
WIRE 64 464 64 400
WIRE 176 464 64 464
WIRE 64 512 64 464
WIRE 176 544 176 464
WIRE -208 672 -208 400
WIRE 64 672 64 592
WIRE 64 672 -208 672
WIRE 80 672 64 672
WIRE 176 672 176 608
WIRE 176 672 80 672
WIRE 288 672 288 400
WIRE 288 672 176 672
WIRE 432 672 432 400
WIRE 432 672 288 672
WIRE 80 720 80 672
FLAG 80 720 0
FLAG -176 -288 0
FLAG -480 432 0
FLAG 832 352 0
SYMBOL npn 368 64 R0
WINDOW 3 44 59 Left 2
SYMATTR InstName Q2
SYMBOL res 48 -128 R0
SYMATTR InstName R1
SYMBOL res -224 -128 R0
SYMATTR InstName R2
SYMBOL res -224 304 R0
SYMATTR InstName R3
SYMBOL res 48 304 R0
SYMATTR InstName R4
SYMBOL res 272 -128 R0
SYMATTR InstName R5
SYMBOL res 272 304 R0
SYMATTR InstName R6
SYMBOL res 416 -128 R0
SYMATTR InstName R7
SYMBOL res 416 304 R0
SYMATTR InstName R8
SYMBOL res 816 128 R0
SYMATTR InstName R9
SYMBOL res 48 496 R0
SYMATTR InstName R10
SYMBOL voltage 80 -240 R180
WINDOW 0 24 96 Left 2
WINDOW 3 24 16 Left 2
SYMATTR InstName V2
SYMBOL voltage -480 256 R0
SYMATTR InstName V1
SYMBOL npn 0 80 R0
SYMATTR InstName Q1
SYMBOL cap 208 32 R90
WINDOW 0 0 32 VBottom 2
WINDOW 3 32 32 VTop 2
SYMATTR InstName C1
SYMBOL cap -320 112 R90
WINDOW 0 0 32 VBottom 2
WINDOW 3 32 32 VTop 2
SYMATTR InstName C2
SYMBOL cap 160 544 R0
SYMATTR InstName C3
SYMBOL cap 272 192 R90
WINDOW 0 0 32 VBottom 2
WINDOW 3 32 32 VTop 2
SYMATTR InstName C4
SYMBOL res 192 192 R90
WINDOW 0 0 56 VBottom 2
WINDOW 3 32 56 VTop 2
SYMATTR InstName R11
SYMBOL cap 640 0 R90
WINDOW 0 0 32 VBottom 2
WINDOW 3 32 32 VTop 2
SYMATTR InstName C5
