Version 4.1
SHEET 1 940 680
WIRE 176 64 48 64
WIRE 352 64 240 64
WIRE 512 64 352 64
WIRE 512 112 512 64
WIRE 48 128 48 64
WIRE 352 128 352 64
WIRE 48 256 48 208
WIRE 208 256 48 256
WIRE 352 256 352 208
WIRE 352 256 208 256
WIRE 512 256 512 176
WIRE 512 256 352 256
WIRE 208 288 208 256
FLAG 208 288 0
SYMBOL voltage 48 112 R0
WINDOW 123 0 0 Left 0
WINDOW 39 0 0 Left 0
SYMATTR InstName V1
SYMATTR Value SINE(0 5 1k)
SYMBOL diode 176 80 R270
WINDOW 0 32 32 VTop 2
WINDOW 3 0 32 VBottom 2
SYMATTR InstName D1
SYMBOL res 336 112 R0
SYMATTR InstName R1
SYMATTR Value 10k
SYMBOL cap 496 112 R0
SYMATTR InstName C1
SYMATTR Value {C}
TEXT 8 312 Left 2 !.tran 10ms
TEXT 576 256 Left 2 !.step param C list 0.1u, 1u, 10u
