Version 4.1
SHEET 1 1076 680
WIRE 304 -176 80 -176
WIRE 304 -112 304 -176
WIRE 304 -112 256 -112
WIRE 352 -112 304 -112
WIRE 80 -32 80 -96
WIRE 480 -32 352 -32
WIRE 752 -32 544 -32
WIRE 352 48 352 -32
WIRE 112 96 -16 96
WIRE 256 96 256 -32
WIRE 256 96 176 96
WIRE 288 96 256 96
WIRE 752 112 752 -32
WIRE -16 176 -16 96
WIRE 256 240 256 96
WIRE 352 240 352 144
WIRE 480 240 352 240
WIRE 480 256 480 240
WIRE -16 320 -16 256
WIRE 192 320 -16 320
WIRE 256 320 192 320
WIRE 352 320 256 320
WIRE 480 320 352 320
WIRE 752 320 752 192
WIRE 752 320 480 320
WIRE 192 384 192 320
FLAG 192 384 0
FLAG 80 -32 0
FLAG 752 -32 Vout
FLAG -16 96 Vin
SYMBOL voltage -16 160 R0
WINDOW 123 24 124 Left 2
WINDOW 39 0 0 Left 0
SYMATTR Value2 Ac 1
SYMATTR InstName V1
SYMATTR Value SINE(0 25m 20k)
SYMBOL cap 176 80 R90
WINDOW 0 0 32 VBottom 2
WINDOW 3 32 32 VTop 2
SYMATTR InstName Cb
SYMATTR Value 0.1Á
SYMBOL res 240 -128 R0
SYMATTR InstName R1
SYMATTR Value 68k
SYMBOL res 240 224 R0
SYMATTR InstName R2
SYMATTR Value 12k
SYMBOL npn 288 48 R0
SYMATTR InstName Q1
SYMATTR Value BC547B
SYMBOL res 336 -128 R0
SYMATTR InstName Rc
SYMATTR Value 1.2k
SYMBOL res 336 224 R0
SYMATTR InstName RE
SYMATTR Value 300
SYMBOL cap 464 256 R0
SYMATTR InstName CE
SYMATTR Value 47Á
SYMBOL cap 544 -48 R90
WINDOW 0 0 32 VBottom 2
WINDOW 3 32 32 VTop 2
SYMATTR InstName Cc
SYMATTR Value 0.1Á
SYMBOL res 736 96 R0
SYMATTR InstName Rout
SYMATTR Value 5k
SYMBOL voltage 80 -192 R0
WINDOW 123 0 0 Left 0
WINDOW 39 0 0 Left 0
SYMATTR InstName Vcc
SYMATTR Value 12
TEXT -200 376 Left 2 ;.ac dec 100 10 1g
TEXT 784 -120 Left 2 ;U24EC086
TEXT 784 -168 Left 2 ;Thota Venkata Sai
TEXT -168 0 Left 2 !.tran 0 1m 0
