Version 4.1
SHEET 1 880 680
WIRE 240 -192 48 -192
WIRE 240 -144 240 -192
WIRE 48 -96 48 -192
WIRE 240 16 240 -64
WIRE 240 16 -96 16
WIRE 288 16 240 16
WIRE 128 96 80 96
WIRE 288 96 192 96
WIRE 528 96 288 96
WIRE 640 96 592 96
WIRE -272 144 -368 144
WIRE -96 144 -96 96
WIRE -96 144 -208 144
WIRE 0 144 0 96
WIRE 0 144 -96 144
WIRE 224 144 0 144
WIRE 368 192 288 192
WIRE 512 192 368 192
WIRE 640 208 640 96
WIRE -96 240 -96 144
WIRE -368 272 -368 144
WIRE -368 384 -368 352
WIRE -96 384 -96 320
WIRE -96 384 -368 384
WIRE 112 384 -96 384
WIRE 368 384 368 272
WIRE 368 384 112 384
WIRE 512 384 512 256
WIRE 512 384 368 384
WIRE 640 384 640 288
WIRE 640 384 512 384
WIRE 112 512 112 384
FLAG 48 -96 0
FLAG 112 512 0
FLAG -368 144 Vin
FLAG 640 96 Vout
SYMBOL voltage -368 256 R0
WINDOW 123 24 124 Left 2
WINDOW 39 0 0 Left 0
SYMATTR Value2 AC 1
SYMATTR InstName V1
SYMATTR Value SINE(0 20m 20k)
SYMBOL voltage 240 -48 R180
WINDOW 0 24 96 Left 2
WINDOW 3 24 16 Left 2
WINDOW 123 0 0 Left 0
WINDOW 39 0 0 Left 0
SYMATTR InstName Vin
SYMATTR Value 12
SYMBOL res -112 0 R0
SYMATTR InstName R1
SYMATTR Value 68k
SYMBOL res -112 224 R0
SYMATTR InstName R2
SYMATTR Value 12k
SYMBOL res 272 0 R0
WINDOW 0 36 43 Left 2
SYMATTR InstName R3
SYMATTR Value 1.2k
SYMBOL res 352 176 R0
SYMATTR InstName R4
SYMATTR Value 330
SYMBOL npn 224 96 R0
SYMATTR InstName Q1
SYMATTR Value BC547B
SYMBOL cap -272 160 R270
WINDOW 0 32 32 VTop 2
WINDOW 3 0 32 VBottom 2
SYMATTR InstName Cin
SYMATTR Value 0.1”
SYMBOL cap 528 112 R270
WINDOW 0 32 32 VTop 2
WINDOW 3 0 32 VBottom 2
SYMATTR InstName Cout
SYMATTR Value 0.1”
SYMBOL cap 192 80 R90
WINDOW 0 0 32 VBottom 2
WINDOW 3 32 32 VTop 2
SYMATTR InstName C3
SYMATTR Value 0.1”
SYMBOL res -16 112 R270
WINDOW 0 32 56 VTop 2
WINDOW 3 0 56 VBottom 2
SYMATTR InstName R
SYMATTR Value 1.2k
SYMBOL cap 528 256 R180
WINDOW 0 24 56 Left 2
WINDOW 3 24 8 Left 2
SYMATTR InstName C4
SYMATTR Value 47”
SYMBOL res 624 192 R0
SYMATTR InstName R6
SYMATTR Value 5k
TEXT -616 480 Left 2 ;.ac dec 100 1k 1g
TEXT 552 -64 Left 2 ;Thota Venkata Sai\nU24EC086
TEXT -608 424 Left 2 ;.tran 0 0.5m 0
TEXT -568 376 Left 2 !.op
