Version 4.1
SHEET 1 880 680
WIRE 352 -448 192 -448
WIRE 592 -448 416 -448
WIRE 80 -368 64 -368
WIRE 192 -368 192 -448
WIRE 192 -368 160 -368
WIRE 192 -272 192 -368
WIRE 352 -272 192 -272
WIRE 592 -272 592 -448
WIRE 592 -272 416 -272
WIRE 64 -144 64 -368
WIRE 176 -144 64 -144
WIRE 592 -144 592 -272
WIRE 592 -144 256 -144
WIRE 256 -32 192 -32
WIRE 192 -16 192 -32
WIRE 256 -16 256 -32
WIRE 192 144 192 64
WIRE -32 160 -128 160
WIRE 64 160 64 -144
WIRE 64 160 48 160
WIRE 160 160 64 160
WIRE 592 176 592 -144
WIRE 592 176 224 176
WIRE 160 192 80 192
WIRE -128 208 -128 160
WIRE 192 272 192 208
WIRE 192 400 192 352
WIRE 80 432 80 192
WIRE 80 432 -48 432
WIRE 384 432 80 432
WIRE 512 432 448 432
WIRE 592 432 592 176
WIRE -48 512 -48 496
WIRE 16 512 -48 512
WIRE 80 512 16 512
WIRE 16 560 16 512
FLAG 256 -16 0
FLAG 192 400 0
FLAG -128 208 0
FLAG 16 560 0
FLAG 592 176 Vout
SYMBOL OpAmps\\UniversalOpAmp 192 176 R0
SYMATTR InstName U1
SYMBOL res 64 144 R90
WINDOW 0 0 56 VBottom 2
WINDOW 3 32 56 VTop 2
SYMATTR InstName R1
SYMATTR Value 10k
SYMBOL res 272 -160 R90
WINDOW 0 0 56 VBottom 2
WINDOW 3 32 56 VTop 2
SYMATTR InstName R2
SYMATTR Value 22k
SYMBOL res 176 -384 R90
WINDOW 0 0 56 VBottom 2
WINDOW 3 32 56 VTop 2
SYMATTR InstName R3
SYMATTR Value 100k
SYMBOL res 608 416 R90
WINDOW 0 0 56 VBottom 2
WINDOW 3 32 56 VTop 2
SYMATTR InstName R4
SYMATTR Value 10k
SYMBOL res 96 528 R180
WINDOW 0 36 36 Left 2
WINDOW 3 -52 27 Left 2
SYMATTR InstName R5
SYMATTR Value 10k
SYMBOL cap -64 432 R0
WINDOW 0 33 60 Left 2
WINDOW 3 -83 65 Left 2
SYMATTR InstName C1
SYMATTR Value 0.01µ
SYMBOL cap 448 416 R90
WINDOW 0 0 32 VBottom 2
WINDOW 3 32 32 VTop 2
SYMATTR InstName C2
SYMATTR Value 0.01µ
SYMBOL voltage 192 80 R180
WINDOW 0 24 96 Left 2
WINDOW 3 24 16 Left 2
WINDOW 123 0 0 Left 0
WINDOW 39 0 0 Left 0
SYMATTR InstName V1
SYMATTR Value 15
SYMBOL voltage 192 368 R180
WINDOW 0 24 96 Left 2
WINDOW 3 24 16 Left 2
WINDOW 123 0 0 Left 0
WINDOW 39 0 0 Left 0
SYMATTR InstName V2
SYMATTR Value -15
SYMBOL diode 416 -464 R90
WINDOW 0 0 32 VBottom 2
WINDOW 3 32 32 VTop 2
SYMATTR InstName D1
SYMATTR Value 1N4148
SYMBOL diode 352 -256 R270
WINDOW 0 32 32 VTop 2
WINDOW 3 0 32 VBottom 2
SYMATTR InstName D2
SYMATTR Value 1N4148
TEXT -376 304 Left 2 !.tran 0 70ms 0 startup
